# generated using pymatgen
data_VH12(C2O)5
_symmetry_space_group_name_H-M   'P 1'
_cell_length_a   6.84700020
_cell_length_b   31.56570010
_cell_length_c   28.23500010
_cell_angle_alpha   90.00000000
_cell_angle_beta   90.00000000
_cell_angle_gamma   90.00000000
_symmetry_Int_Tables_number   1
_chemical_formula_structural   VH12(C2O)5
_chemical_formula_sum   'V16 H192 C160 O80'
_cell_volume   6102.44059215
_cell_formula_units_Z   16
loop_
 _symmetry_equiv_pos_site_id
 _symmetry_equiv_pos_as_xyz
  1  'x, y, z'
loop_
 _atom_site_type_symbol
 _atom_site_label
 _atom_site_symmetry_multiplicity
 _atom_site_fract_x
 _atom_site_fract_y
 _atom_site_fract_z
 _atom_site_occupancy
  C  C0  1  0.50000000  0.43938000  0.69440000  1
  C  C1  1  0.50000000  0.56062000  0.69440000  1
  C  C2  1  0.50000000  0.43938000  0.30560000  1
  C  C3  1  0.50000000  0.56062000  0.30560000  1
  C  C4  1  0.50000000  0.93938000  0.19440000  1
  C  C5  1  0.00000000  0.93938000  0.69440000  1
  C  C6  1  0.00000000  0.43938000  0.19440000  1
  C  C7  1  0.50000000  0.06062000  0.19440000  1
  C  C8  1  0.00000000  0.06062000  0.69440000  1
  C  C9  1  0.00000000  0.56062000  0.19440000  1
  C  C10  1  0.50000000  0.93938000  0.80560000  1
  C  C11  1  0.00000000  0.93938000  0.30560000  1
  C  C12  1  0.00000000  0.43938000  0.80560000  1
  C  C13  1  0.50000000  0.06062000  0.80560000  1
  C  C14  1  0.00000000  0.06062000  0.30560000  1
  C  C15  1  0.00000000  0.56062000  0.80560000  1
  C  C16  1  0.48663366  0.40256111  0.65982279  1
  C  C17  1  0.50781540  0.59565948  0.65749053  1
  C  C18  1  0.50487695  0.40456366  0.34280194  1
  C  C19  1  0.48661502  0.59699087  0.34076443  1
  C  C20  1  0.48676315  0.90244472  0.15997535  1
  C  C21  1  -0.01310105  0.90323703  0.65893686  1
  C  C22  1  0.01211546  0.40362491  0.15842847  1
  C  C23  1  0.48884011  0.09614199  0.15812294  1
  C  C24  1  -0.00696011  0.09558043  0.65738692  1
  C  C25  1  -0.01319775  0.59758330  0.16001207  1
  C  C26  1  0.48665660  0.90305574  0.84082552  1
  C  C27  1  0.01225629  0.90200949  0.33945420  1
  C  C28  1  0.00335035  0.40095959  0.83807810  1
  C  C29  1  0.51234869  0.09796134  0.83949244  1
  C  C30  1  0.00247585  0.09534001  0.34292821  1
  C  C31  1  0.00817814  0.59569716  0.84246009  1
  C  C32  1  0.69609806  0.39328982  0.64264194  1
  C  C33  1  0.38534006  0.63281592  0.67685867  1
  C  C34  1  0.42845015  0.36391036  0.31885047  1
  C  C35  1  0.69637159  0.61328312  0.34874292  1
  C  C36  1  0.69419825  0.89499744  0.14040376  1
  C  C37  1  0.19220599  0.88337337  0.65563941  1
  C  C38  1  -0.17774634  0.37768278  0.16309805  1
  C  C39  1  0.66372718  0.12573708  0.16758045  1
  C  C40  1  0.10211202  0.13397564  0.67837872  1
  C  C41  1  0.19362465  0.60459148  0.13986497  1
  C  C42  1  0.69576145  0.88603308  0.84784667  1
  C  C43  1  -0.17981248  0.90138263  0.36796528  1
  C  C44  1  -0.04915304  0.41678580  0.88815419  1
  C  C45  1  0.31883199  0.09904536  0.86740431  1
  C  C46  1  -0.03632334  0.13750299  0.31699800  1
  C  C47  1  -0.11998179  0.63226314  0.82386585  1
  C  C48  1  0.69662877  0.35638387  0.60742838  1
  C  C49  1  0.38502975  0.66979252  0.64173772  1
  C  C50  1  0.42825651  0.32692490  0.35395981  1
  C  C51  1  0.69690303  0.65020686  0.38393316  1
  C  C52  1  0.69472381  0.85809611  0.10518415  1
  C  C53  1  0.19272616  0.84644058  0.62046103  1
  C  C54  1  -0.17822738  0.34073459  0.12793986  1
  C  C55  1  0.66417028  0.16269453  0.13243439  1
  C  C56  1  0.10238837  0.17095538  0.64326188  1
  C  C57  1  0.19414866  0.64149170  0.10464390  1
  C  C58  1  0.69629125  0.84910749  0.88303449  1
  C  C59  1  -0.18029911  0.86449858  0.40320755  1
  C  C60  1  -0.04928606  0.37994344  0.92345109  1
  C  C61  1  0.31834169  0.13593057  0.90264506  1
  C  C62  1  -0.03642165  0.17449227  0.35210233  1
  C  C63  1  -0.12030650  0.66923825  0.85898877  1
  C  C64  1  0.48598553  0.33971166  0.59991722  1
  C  C65  1  0.50819436  0.65842265  0.59747187  1
  C  C66  1  0.50511343  0.34181131  0.40283479  1
  C  C67  1  0.48596599  0.65981860  0.40069848  1
  C  C68  1  0.48612131  0.83958962  0.10007717  1
  C  C69  1  -0.01373631  0.84042035  0.59898833  1
  C  C70  1  0.01270293  0.34082704  0.09845529  1
  C  C71  1  0.48829897  0.15892856  0.09813495  1
  C  C72  1  -0.00729760  0.15833977  0.59736323  1
  C  C73  1  -0.01383770  0.66043976  0.10011568  1
  C  C74  1  0.48600959  0.84023027  0.90076253  1
  C  C75  1  0.01285059  0.83913329  0.39932472  1
  C  C76  1  0.00351280  0.33803248  0.89788189  1
  C  C77  1  0.51294747  0.16083612  0.89936481  1
  C  C78  1  0.00259591  0.15808769  0.40296718  1
  C  C79  1  0.00857469  0.65846216  0.90247636  1
  C  C80  1  0.36337643  0.37644068  0.58184452  1
  C  C81  1  0.41978958  0.61882024  0.57563302  1
  C  C82  1  0.37343153  0.37754442  0.41960215  1
  C  C83  1  0.40586561  0.61969466  0.42322088  1
  C  C84  1  0.36531687  0.67018956  0.35703733  1
  C  C85  1  0.70994030  0.35914613  0.39548755  1
  C  C86  1  0.71381530  0.64830384  0.61427711  1
  C  C87  1  0.40812477  0.32601612  0.64793587  1
  C  C88  1  0.35340341  0.87520154  0.08346866  1
  C  C89  1  -0.07001311  0.88171774  0.57492789  1
  C  C90  1  0.18244950  0.33746847  0.13292531  1
  C  C91  1  0.30352850  0.15873663  0.12795134  1
  C  C92  1  -0.21402956  0.14601489  0.61127698  1
  C  C93  1  -0.07668702  0.67490026  0.14913697  1
  C  C94  1  0.36123556  0.83028727  0.85766231  1
  C  C95  1  0.17964551  0.86963187  0.40923119  1
  C  C96  1  0.20346499  0.34385892  0.87545064  1
  C  C97  1  0.53344366  0.17652995  0.84872700  1
  C  C98  1  0.19858735  0.13550138  0.40250306  1
  C  C99  1  0.21332918  0.64931013  0.88440396  1
  C  C100  1  0.67765823  0.12994450  0.90978644  1
  C  C101  1  -0.15626240  0.12616121  0.41474519  1
  C  C102  1  -0.07352313  0.61845807  0.92484168  1
  C  C103  1  0.41065787  0.88062528  0.92364022  1
  C  C104  1  0.02987688  0.82339497  0.34862860  1
  C  C105  1  -0.14619053  0.33121973  0.85888449  1
  C  C106  1  0.50569214  0.11663590  0.07277001  1
  C  C107  1  0.09504585  0.11975785  0.57686194  1
  C  C108  1  -0.14892969  0.62511171  0.08387923  1
  C  C109  1  0.42031152  0.82526549  0.14891972  1
  C  C110  1  -0.15395054  0.83229398  0.63970749  1
  C  C111  1  0.02466537  0.38317408  0.07301907  1
  C  C112  1  0.36216789  0.41315272  0.61661106  1
  C  C113  1  0.41969797  0.58201437  0.61027658  1
  C  C114  1  0.37299285  0.41434097  0.38494637  1
  C  C115  1  0.40486819  0.58294568  0.38850275  1
  C  C116  1  0.36411727  0.63369235  0.32198921  1
  C  C117  1  0.71117948  0.39585094  0.36071153  1
  C  C118  1  0.71518974  0.61164498  0.64911335  1
  C  C119  1  0.40713935  0.36247673  0.68303196  1
  C  C120  1  0.35215025  0.91190281  0.11824932  1
  C  C121  1  -0.07087905  0.91848276  0.60962500  1
  C  C122  1  0.18383719  0.37402816  0.16789154  1
  C  C123  1  0.30210859  0.12214883  0.16288072  1
  C  C124  1  -0.21537132  0.10934150  0.64609418  1
  C  C125  1  -0.07759006  0.63844991  0.18424651  1
  C  C126  1  0.36001725  0.86678870  0.82261972  1
  C  C127  1  0.18102477  0.90628820  0.37439162  1
  C  C128  1  0.20461166  0.38034532  0.84038835  1
  C  C129  1  0.53409759  0.14010264  0.81358726  1
  C  C130  1  0.19967520  0.09876608  0.36776700  1
  C  C131  1  0.21471550  0.61265777  0.84955919  1
  C  C132  1  0.67903122  0.09328491  0.87495115  1
  C  C133  1  -0.15694387  0.08937934  0.38007017  1
  C  C134  1  -0.07356708  0.58165188  0.89019854  1
  C  C135  1  0.40968599  0.91737770  0.88892660  1
  C  C136  1  0.03050938  0.85982076  0.31348686  1
  C  C137  1  -0.14678728  0.36764311  0.82373960  1
  C  C138  1  0.50528025  0.07983818  0.10742425  1
  C  C139  1  0.09524518  0.08295354  0.61150755  1
  C  C140  1  -0.15019294  0.58841311  0.11866339  1
  C  C141  1  0.41939197  0.86171778  0.18402672  1
  C  C142  1  -0.15523501  0.86881257  0.67472760  1
  C  C143  1  0.02526632  0.41996166  0.10768660  1
  C  C144  1  0.50000000  0.30326000  0.56460000  1
  C  C145  1  0.50000000  0.69674000  0.56460000  1
  C  C146  1  0.50000000  0.30326000  0.43540000  1
  C  C147  1  0.50000000  0.69674000  0.43540000  1
  C  C148  1  0.50000000  0.80326000  0.06460000  1
  C  C149  1  0.00000000  0.80326000  0.56460000  1
  C  C150  1  0.00000000  0.30326000  0.06460000  1
  C  C151  1  0.50000000  0.19674000  0.06460000  1
  C  C152  1  0.00000000  0.19674000  0.56460000  1
  C  C153  1  0.00000000  0.69674000  0.06460000  1
  C  C154  1  0.50000000  0.80326000  0.93540000  1
  C  C155  1  0.00000000  0.80326000  0.43540000  1
  C  C156  1  0.00000000  0.30326000  0.93540000  1
  C  C157  1  0.50000000  0.19674000  0.93540000  1
  C  C158  1  0.00000000  0.19674000  0.43540000  1
  C  C159  1  0.00000000  0.69674000  0.93540000  1
  H  H160  1  0.75083686  0.41884370  0.62723205  1
  H  H161  1  0.24951504  0.62327067  0.68243126  1
  H  H162  1  0.29407384  0.36870525  0.30705160  1
  H  H163  1  0.77886378  0.59002754  0.36114043  1
  H  H164  1  0.75256865  0.62277257  0.31822160  1
  H  H165  1  0.51229372  0.35677429  0.29141372  1
  H  H166  1  0.44018543  0.64239026  0.70749126  1
  H  H167  1  0.77985535  0.38614428  0.67009111  1
  H  H168  1  0.74108105  0.92099593  0.12441112  1
  H  H169  1  0.28729558  0.90510095  0.64524464  1
  H  H170  1  -0.18935376  0.36655601  0.19576541  1
  H  H171  1  0.65599436  0.13690266  0.20029867  1
  H  H172  1  0.03795588  0.14291333  0.70817684  1
  H  H173  1  0.28542329  0.61078263  0.16606321  1
  H  H174  1  0.74886588  0.87635304  0.81707553  1
  H  H175  1  -0.19474847  0.92843650  0.38534121  1
  H  H176  1  0.04686223  0.43838524  0.89838100  1
  H  H177  1  0.20809593  0.10223944  0.84513433  1
  H  H178  1  0.06590665  0.14220114  0.29275662  1
  H  H179  1  -0.06934164  0.64208599  0.79290755  1
  H  H180  1  0.30161648  0.07202961  0.88473028  1
  H  H181  1  -0.16420703  0.13614421  0.30069543  1
  H  H182  1  -0.25536020  0.62207898  0.81913069  1
  H  H183  1  0.78091536  0.90899633  0.85986102  1
  H  H184  1  -0.29187073  0.89845271  0.34604152  1
  H  H185  1  -0.17988308  0.43018895  0.88763814  1
  H  H186  1  0.78709384  0.10960109  0.16451457  1
  H  H187  1  0.23838573  0.12588611  0.68585931  1
  H  H188  1  0.23857522  0.57849565  0.12374474  1
  H  H189  1  0.78446976  0.88861331  0.16685496  1
  H  H190  1  0.23286367  0.87305053  0.68725305  1
  H  H191  1  -0.29167393  0.39619527  0.15691729  1
  H  H192  1  0.78018916  0.33327856  0.61967241  1
  H  H193  1  0.44000621  0.69529908  0.65712905  1
  H  H194  1  0.51218951  0.30386049  0.34176939  1
  H  H195  1  0.75289867  0.67564941  0.36862572  1
  H  H196  1  0.77919784  0.64289935  0.41155115  1
  H  H197  1  0.29393608  0.31579328  0.35740968  1
  H  H198  1  0.24930651  0.67617655  0.63206520  1
  H  H199  1  0.75116620  0.36598301  0.57680677  1
  H  H200  1  0.78480146  0.83575050  0.11643245  1
  H  H201  1  0.23318448  0.82016809  0.63685627  1
  H  H202  1  -0.29198234  0.34330796  0.10652690  1
  H  H203  1  0.78738076  0.16249437  0.11413200  1
  H  H204  1  0.23857379  0.17879411  0.63549603  1
  H  H205  1  0.23889901  0.63135279  0.07331480  1
  H  H206  1  0.78124883  0.85612336  0.91027022  1
  H  H207  1  -0.29218224  0.84560088  0.39647843  1
  H  H208  1  -0.17998363  0.37736484  0.93811138  1
  H  H209  1  0.30131734  0.12487753  0.93517230  1
  H  H210  1  -0.16428614  0.18905902  0.35104978  1
  H  H211  1  -0.25557737  0.67498385  0.86949807  1
  H  H212  1  0.20778240  0.15509201  0.89557026  1
  H  H213  1  0.06586292  0.19511688  0.34310976  1
  H  H214  1  -0.06953021  0.69499394  0.84327090  1
  H  H215  1  0.74919443  0.82347505  0.86747815  1
  H  H216  1  -0.19504504  0.87558929  0.43578416  1
  H  H217  1  0.04679655  0.38556239  0.94885588  1
  H  H218  1  0.65626112  0.18980014  0.14992160  1
  H  H219  1  0.03811313  0.19582394  0.65781699  1
  H  H220  1  0.28575428  0.66364473  0.11563978  1
  H  H221  1  0.74140608  0.86813810  0.07398209  1
  H  H222  1  0.28762476  0.85222344  0.59484140  1
  H  H223  1  -0.18964644  0.31366413  0.14538099  1
  H  H224  1  0.22791864  0.36661611  0.57652972  1
  H  H225  1  0.49529324  0.61092264  0.54708982  1
  H  H226  1  0.41877903  0.38756668  0.45093014  1
  H  H227  1  0.27120512  0.62499538  0.43446507  1
  H  H228  1  0.22971938  0.67665712  0.36675215  1
  H  H229  1  0.76306385  0.36874324  0.42625830  1
  H  H230  1  0.79611332  0.64108755  0.58662690  1
  H  H231  1  0.27370102  0.31502634  0.64414832  1
  H  H232  1  0.21899690  0.86419627  0.07970141  1
  H  H233  1  -0.20130582  0.87870541  0.56068431  1
  H  H234  1  0.30658496  0.33727287  0.11498984  1
  H  H235  1  0.18852727  0.15653728  0.10687682  1
  H  H236  1  -0.28786687  0.13796328  0.58253192  1
  H  H237  1  -0.20909107  0.68734063  0.14725070  1
  H  H238  1  0.22595540  0.82429206  0.86799624  1
  H  H239  1  0.30511013  0.85419002  0.40718343  1
  H  H240  1  0.24132854  0.31742951  0.85900151  1
  H  H241  1  0.65644437  0.19274976  0.84565957  1
  H  H242  1  0.22768243  0.12482704  0.43468572  1
  H  H243  1  0.29920643  0.64249003  0.91153487  1
  H  H244  1  0.80399145  0.14508780  0.90812998  1
  H  H245  1  -0.13536720  0.11527104  0.44721074  1
  H  H246  1  0.00572553  0.61092504  0.95290704  1
  H  H247  1  0.27651976  0.87579328  0.93549877  1
  H  H248  1  0.15188064  0.80688468  0.34518043  1
  H  H249  1  -0.11640683  0.30449825  0.84205255  1
  H  H250  1  0.39536252  0.11346368  0.05042036  1
  H  H251  1  0.02835067  0.11109949  0.54732162  1
  H  H252  1  -0.28300312  0.63640156  0.08048498  1
  H  H253  1  0.28745112  0.81310629  0.14666491  1
  H  H254  1  -0.28718288  0.82813956  0.62696084  1
  H  H255  1  0.14515474  0.38403465  0.05369929  1
  H  H256  1  0.41644690  0.38620772  0.55109354  1
  H  H257  1  0.28396351  0.62492177  0.56568094  1
  H  H258  1  0.23858784  0.36668430  0.42331715  1
  H  H259  1  0.48694748  0.61217436  0.45102706  1
  H  H260  1  0.41985628  0.69572230  0.34152098  1
  H  H261  1  0.79536909  0.33624281  0.38341757  1
  H  H262  1  0.77045309  0.67370480  0.62962074  1
  H  H263  1  0.49048668  0.30277616  0.66044709  1
  H  H264  1  0.39856514  0.88539836  0.05215437  1
  H  H265  1  0.02383103  0.88773289  0.54909450  1
  H  H266  1  0.17271180  0.31038358  0.15047605  1
  H  H267  1  0.29390012  0.18582261  0.14550353  1
  H  H268  1  -0.27992600  0.17076030  0.62576138  1
  H  H269  1  0.01381942  0.69720044  0.16041641  1
  H  H270  1  0.41266004  0.80456975  0.84190377  1
  H  H271  1  0.16657094  0.88082291  0.44184860  1
  H  H272  1  0.30093062  0.34937273  0.90062692  1
  H  H273  1  0.42368298  0.19586661  0.84133183  1
  H  H274  1  0.30218333  0.15592810  0.39367914  1
  H  H275  1  0.26578145  0.67496809  0.86872348  1
  H  H276  1  0.66229777  0.11878717  0.94235967  1
  H  H277  1  -0.28494459  0.14047403  0.41393475  1
  H  H278  1  -0.20883914  0.62392083  0.93563100  1
  H  H279  1  0.49443329  0.88785810  0.95106961  1
  H  H280  1  -0.08123351  0.80432019  0.34157666  1
  H  H281  1  -0.27760302  0.32846016  0.87321687  1
  H  H282  1  0.62839640  0.11616351  0.05420151  1
  H  H283  1  0.23146453  0.12731588  0.56881889  1
  H  H284  1  -0.10571198  0.61482121  0.05244215  1
  H  H285  1  0.50927007  0.80277509  0.16044849  1
  H  H286  1  -0.11505031  0.80595724  0.65627765  1
  H  H287  1  -0.08835495  0.38600725  0.05135629  1
  H  H288  1  0.22641864  0.41905856  0.62672357  1
  H  H289  1  0.49651976  0.55825114  0.59698345  1
  H  H290  1  0.41971143  0.44027613  0.40108625  1
  H  H291  1  0.26960987  0.57250110  0.38433917  1
  H  H292  1  0.22821264  0.62405261  0.31677072  1
  H  H293  1  0.76326170  0.42149285  0.37646705  1
  H  H294  1  0.79669803  0.58835170  0.63643618  1
  H  H295  1  0.27210335  0.36757885  0.69419790  1
  H  H296  1  0.21753609  0.91662576  0.12991224  1
  H  H297  1  -0.20291553  0.93122727  0.61077407  1
  H  H298  1  0.30781665  0.38994350  0.16488461  1
  H  H299  1  0.18745475  0.10384357  0.15674133  1
  H  H300  1  -0.28833605  0.08522179  0.63233382  1
  H  H301  1  -0.21069922  0.63480554  0.19732312  1
  H  H302  1  0.22446315  0.87690180  0.81802166  1
  H  H303  1  0.30636689  0.90657312  0.35691179  1
  H  H304  1  0.24133515  0.36972762  0.80861848  1
  H  H305  1  0.65803268  0.14026197  0.79552515  1
  H  H306  1  0.22758204  0.07207615  0.38489614  1
  H  H307  1  0.29984101  0.58975705  0.86172183  1
  H  H308  1  0.80526497  0.09270170  0.85786228  1
  H  H309  1  -0.13469302  0.06254054  0.39739444  1
  H  H310  1  0.00698625  0.55825940  0.90300572  1
  H  H311  1  0.27491964  0.92829314  0.88538017  1
  H  H312  1  0.15346431  0.85936871  0.29504108  1
  H  H313  1  -0.11563699  0.35682395  0.79170568  1
  H  H314  1  0.39384871  0.06086187  0.10040532  1
  H  H315  1  0.02720683  0.05841532  0.59719864  1
  H  H316  1  -0.28445358  0.58397515  0.13069985  1
  H  H317  1  0.28584426  0.86564479  0.19673287  1
  H  H318  1  -0.28860937  0.88076931  0.67690920  1
  H  H319  1  0.14673085  0.43660551  0.10372482  1
  H  H320  1  0.41406789  0.43887815  0.60098474  1
  H  H321  1  0.28417133  0.57203402  0.61528730  1
  H  H322  1  0.23815203  0.41956803  0.37370553  1
  H  H323  1  0.48488059  0.55942947  0.40123345  1
  H  H324  1  0.41748971  0.64335059  0.29123824  1
  H  H325  1  0.79742028  0.38899058  0.33362773  1
  H  H326  1  0.77283394  0.62103496  0.67951271  1
  H  H327  1  0.48843839  0.35507392  0.71082675  1
  H  H328  1  0.39612569  0.93804772  0.10207319  1
  H  H329  1  0.02197149  0.94051157  0.59884382  1
  H  H330  1  0.17530135  0.36287497  0.20060193  1
  H  H331  1  0.29130484  0.13327930  0.19556134  1
  H  H332  1  -0.28222081  0.11806544  0.67562057  1
  H  H333  1  0.01190065  0.64492423  0.21082433  1
  H  H334  1  0.41026756  0.85694976  0.79163191  1
  H  H335  1  0.16915419  0.93338652  0.39181739  1
  H  H336  1  0.30277756  0.40163830  0.85020508  1
  H  H337  1  0.42519518  0.14364118  0.79085736  1
  H  H338  1  0.30390463  0.10313091  0.34395408  1
  H  H339  1  0.26819586  0.62230954  0.81881670  1
  H  H340  1  0.66487579  0.06621744  0.89233647  1
  H  H341  1  -0.28584582  0.08760781  0.36430017  1
  H  H342  1  -0.20854473  0.57103426  0.88602308  1
  H  H343  1  0.49240607  0.94061014  0.90128537  1
  H  H344  1  -0.07975714  0.85654207  0.29109756  1
  H  H345  1  -0.27834023  0.38063232  0.82267259  1
  H  H346  1  0.62729522  0.06330905  0.10385151  1
  H  H347  1  0.23145396  0.07442697  0.61842373  1
  H  H348  1  -0.10816467  0.56217704  0.10236778  1
  H  H349  1  0.50732512  0.85505539  0.21085104  1
  H  H350  1  -0.11753020  0.85837065  0.70650573  1
  H  H351  1  -0.08693152  0.43883643  0.10103943  1
  O  O352  1  0.34010000  0.45412000  0.70622000  1
  O  O353  1  0.65989999  0.54588000  0.70622000  1
  O  O354  1  0.65989999  0.45412000  0.29378000  1
  O  O355  1  0.34010000  0.54588000  0.29378000  1
  O  O356  1  0.65989999  0.54588000  0.29378000  1
  O  O357  1  0.34010000  0.45412000  0.29378000  1
  O  O358  1  0.34010000  0.54588000  0.70622000  1
  O  O359  1  0.65989999  0.45412000  0.70622000  1
  O  O360  1  0.34010000  0.95412000  0.20622000  1
  O  O361  1  0.84010000  0.95412000  0.70622000  1
  O  O362  1  0.84010000  0.45412000  0.20622000  1
  O  O363  1  0.65989999  0.04588000  0.20622000  1
  O  O364  1  0.15989999  0.04588000  0.70622000  1
  O  O365  1  0.15989999  0.54588000  0.20622000  1
  O  O366  1  0.65989999  0.95412000  0.79378000  1
  O  O367  1  0.15989999  0.95412000  0.29378000  1
  O  O368  1  0.15989999  0.45412000  0.79378000  1
  O  O369  1  0.34010000  0.04588000  0.79378000  1
  O  O370  1  0.84010000  0.04588000  0.29378000  1
  O  O371  1  0.84010000  0.54588000  0.79378000  1
  O  O372  1  0.65989999  0.04588000  0.79378000  1
  O  O373  1  0.15989999  0.04588000  0.29378000  1
  O  O374  1  0.15989999  0.54588000  0.79378000  1
  O  O375  1  0.34010000  0.95412000  0.79378000  1
  O  O376  1  0.84010000  0.95412000  0.29378000  1
  O  O377  1  0.84010000  0.45412000  0.79378000  1
  O  O378  1  0.34010000  0.04588000  0.20622000  1
  O  O379  1  0.84010000  0.04588000  0.70622000  1
  O  O380  1  0.84010000  0.54588000  0.20622000  1
  O  O381  1  0.65989999  0.95412000  0.20622000  1
  O  O382  1  0.15989999  0.95412000  0.70622000  1
  O  O383  1  0.15989999  0.45412000  0.20622000  1
  O  O384  1  0.33760001  0.29068000  0.55012000  1
  O  O385  1  0.66239999  0.70932000  0.55012000  1
  O  O386  1  0.66239999  0.29068000  0.44988000  1
  O  O387  1  0.33760001  0.70932000  0.44988000  1
  O  O388  1  0.66239999  0.70932000  0.44988000  1
  O  O389  1  0.33760001  0.29068000  0.44988000  1
  O  O390  1  0.33760001  0.70932000  0.55012000  1
  O  O391  1  0.66239999  0.29068000  0.55012000  1
  O  O392  1  0.33760001  0.79068000  0.05012000  1
  O  O393  1  0.83760001  0.79068000  0.55012000  1
  O  O394  1  0.83760001  0.29068000  0.05012000  1
  O  O395  1  0.66239999  0.20932000  0.05012000  1
  O  O396  1  0.16239999  0.20932000  0.55012000  1
  O  O397  1  0.16239999  0.70932000  0.05012000  1
  O  O398  1  0.66239999  0.79068000  0.94988000  1
  O  O399  1  0.16239999  0.79068000  0.44988000  1
  O  O400  1  0.16239999  0.29068000  0.94988000  1
  O  O401  1  0.33760001  0.20932000  0.94988000  1
  O  O402  1  0.83760001  0.20932000  0.44988000  1
  O  O403  1  0.83760001  0.70932000  0.94988000  1
  O  O404  1  0.66239999  0.20932000  0.94988000  1
  O  O405  1  0.16239999  0.20932000  0.44988000  1
  O  O406  1  0.16239999  0.70932000  0.94988000  1
  O  O407  1  0.33760001  0.79068000  0.94988000  1
  O  O408  1  0.83760001  0.79068000  0.44988000  1
  O  O409  1  0.83760001  0.29068000  0.94988000  1
  O  O410  1  0.33760001  0.20932000  0.05012000  1
  O  O411  1  0.83760001  0.20932000  0.55012000  1
  O  O412  1  0.83760001  0.70932000  0.05012000  1
  O  O413  1  0.66239999  0.79068000  0.05012000  1
  O  O414  1  0.16239999  0.79068000  0.55012000  1
  O  O415  1  0.16239999  0.29068000  0.05012000  1
  O  O416  1  0.50000000  0.50000000  0.78425000  1
  O  O417  1  0.50000000  0.50000000  0.21575000  1
  O  O418  1  0.50000000  0.00000000  0.28425000  1
  O  O419  1  0.00000000  0.00000000  0.78425000  1
  O  O420  1  0.00000000  0.50000000  0.28425000  1
  O  O421  1  0.50000000  0.00000000  0.71575000  1
  O  O422  1  0.00000000  0.00000000  0.21575000  1
  O  O423  1  0.00000000  0.50000000  0.71575000  1
  O  O424  1  0.50000000  0.22078000  0.50000000  1
  O  O425  1  0.50000000  0.77922000  0.50000000  1
  O  O426  1  0.50000000  0.72078000  0.00000000  1
  O  O427  1  0.00000000  0.72078000  0.50000000  1
  O  O428  1  0.00000000  0.22078000  0.00000000  1
  O  O429  1  0.50000000  0.27922000  0.00000000  1
  O  O430  1  0.00000000  0.27922000  0.50000000  1
  O  O431  1  0.00000000  0.77922000  0.00000000  1
  V  V432  1  0.25000000  0.50000000  0.75000000  1
  V  V433  1  0.75000000  0.50000000  0.75000000  1
  V  V434  1  0.75000000  0.50000000  0.25000000  1
  V  V435  1  0.25000000  0.50000000  0.25000000  1
  V  V436  1  0.25000000  0.00000000  0.25000000  1
  V  V437  1  0.75000000  0.00000000  0.75000000  1
  V  V438  1  0.75000000  0.00000000  0.25000000  1
  V  V439  1  0.25000000  0.00000000  0.75000000  1
  V  V440  1  0.25000000  0.25000000  0.50000000  1
  V  V441  1  0.75000000  0.75000000  0.50000000  1
  V  V442  1  0.75000000  0.25000000  0.50000000  1
  V  V443  1  0.25000000  0.75000000  0.50000000  1
  V  V444  1  0.25000000  0.75000000  0.00000000  1
  V  V445  1  0.75000000  0.25000000  0.00000000  1
  V  V446  1  0.75000000  0.75000000  0.00000000  1
  V  V447  1  0.25000000  0.25000000  0.00000000  1
